/*--------------------------------*- C++ -*----------------------------------*\
| =========                 |                                                 |
| \\      /  F ield         | OpenFOAM: The Open Source CFD Toolbox           |
|  \\    /   O peration     | Version:  2206                                  |
|   \\  /    A nd           | Website:  www.openfoam.com                      |
|    \\/     M anipulation  |                                                 |
\*---------------------------------------------------------------------------*/
FoamFile
{
    version     2.0;
    format      ascii;
    arch        "LSB;label=32;scalar=64";
    class       polyBoundaryMesh;
    location    "0.9/polyMesh";
    object      boundary;
}
// * * * * * * * * * * * * * * * * * * * * * * * * * * * * * * * * * * * * * //

6
(
    ibCylinder
    {
        type            immersedBoundary;
        nFaces          0;
        startFace       3650;
        internalFlow    no;
        isWall          yes;
    }
    in
    {
        type            patch;
        nFaces          25;
        startFace       3650;
    }
    out
    {
        type            patch;
        nFaces          25;
        startFace       3675;
    }
    top
    {
        type            patch;
        nFaces          75;
        startFace       3700;
    }
    bottom
    {
        type            patch;
        nFaces          75;
        startFace       3775;
    }
    frontAndBack
    {
        type            empty;
        inGroups        1(empty);
        nFaces          3750;
        startFace       3850;
    }
)

// ************************************************************************* //
